# generated using pymatgen
data_Si
_symmetry_space_group_name_H-M   'P 1'
_cell_length_a   3.86697465
_cell_length_b   3.86697465
_cell_length_c   37.88845900
_cell_angle_alpha   90.00000000
_cell_angle_beta   90.00000000
_cell_angle_gamma   120.00000000
_symmetry_Int_Tables_number   1
_chemical_formula_structural   Si
_chemical_formula_sum   Si12
_cell_volume   490.65951418
_cell_formula_units_Z   12
loop_
 _symmetry_equiv_pos_site_id
 _symmetry_equiv_pos_as_xyz
  1  'x, y, z'
loop_
 _atom_site_type_symbol
 _atom_site_label
 _atom_site_symmetry_multiplicity
 _atom_site_fract_x
 _atom_site_fract_y
 _atom_site_fract_z
 _atom_site_occupancy
  Si  Si1  1  0.333334  0.666668  0.051866  1
  Si  Si2  1  0.000000  0.000000  0.218708  1
  Si  Si3  1  0.666666  0.333332  0.135276  1
  Si  Si4  1  0.666666  0.333332  0.197947  1
  Si  Si5  1  0.333334  0.666668  0.114844  1
  Si  Si6  1  0.000000  0.000000  0.035331  1
  Si  Si7  1  0.333334  0.666668  0.302053  1
  Si  Si8  1  0.000000  0.000000  0.464669  1
  Si  Si9  1  0.666666  0.333332  0.385156  1
  Si  Si10  1  0.666666  0.333332  0.448134  1
  Si  Si11  1  0.333334  0.666668  0.364724  1
  Si  Si12  1  0.000000  0.000000  0.281292  1
