# generated using pymatgen
data_Si
_symmetry_space_group_name_H-M   'P 1'
_cell_length_a   7.73394931
_cell_length_b   3.86697465
_cell_length_c   21.87491200
_cell_angle_alpha   90.00000000
_cell_angle_beta   90.00000000
_cell_angle_gamma   90.00000000
_symmetry_Int_Tables_number   1
_chemical_formula_structural   Si
_chemical_formula_sum   Si16
_cell_volume   654.21268558
_cell_formula_units_Z   16
loop_
 _symmetry_equiv_pos_site_id
 _symmetry_equiv_pos_as_xyz
  1  'x, y, z'
loop_
 _atom_site_type_symbol
 _atom_site_label
 _atom_site_symmetry_multiplicity
 _atom_site_fract_x
 _atom_site_fract_y
 _atom_site_fract_z
 _atom_site_occupancy
  Si  Si1  1  0.991208  0.000000  0.786609  1
  Si  Si2  1  0.508313  0.000000  0.775584  1
  Si  Si3  1  0.997425  0.500000  0.850596  1
  Si  Si4  1  0.498162  0.500000  0.836820  1
  Si  Si5  1  0.264643  0.500000  0.907008  1
  Si  Si6  1  0.736349  0.500000  0.909150  1
  Si  Si7  1  0.307094  0.000000  0.970707  1
  Si  Si8  1  0.592885  0.000000  0.941019  1
  Si  Si9  1  0.157115  0.000000  0.558981  1
  Si  Si10  1  0.442906  0.000000  0.529293  1
  Si  Si11  1  0.013651  0.500000  0.590850  1
  Si  Si12  1  0.485357  0.500000  0.592992  1
  Si  Si13  1  0.251838  0.500000  0.663180  1
  Si  Si14  1  0.752575  0.500000  0.649404  1
  Si  Si15  1  0.241687  0.000000  0.724416  1
  Si  Si16  1  0.758792  0.000000  0.713391  1
