# generated using pymatgen
data_Si
_symmetry_space_group_name_H-M   'P 1'
_cell_length_a   5.46872800
_cell_length_b   8.64681819
_cell_length_c   20.82429581
_cell_angle_alpha   94.76364169
_cell_angle_beta   90.00000000
_cell_angle_gamma   90.00000000
_symmetry_Int_Tables_number   1
_chemical_formula_structural   Si
_chemical_formula_sum   Si24
_cell_volume   981.31902837
_cell_formula_units_Z   24
loop_
 _symmetry_equiv_pos_site_id
 _symmetry_equiv_pos_as_xyz
  1  'x, y, z'
loop_
 _atom_site_type_symbol
 _atom_site_label
 _atom_site_symmetry_multiplicity
 _atom_site_fract_x
 _atom_site_fract_y
 _atom_site_fract_z
 _atom_site_occupancy
  Si  Si1  1  0.996717  0.812944  0.143263  1
  Si  Si2  1  0.051618  0.436427  0.057638  1
  Si  Si3  1  0.998901  0.229431  0.227331  1
  Si  Si4  1  0.253283  0.312944  0.143263  1
  Si  Si5  1  0.198382  0.936427  0.057638  1
  Si  Si6  1  0.251099  0.729431  0.227331  1
  Si  Si7  1  0.520187  0.106483  0.101084  1
  Si  Si8  1  0.328746  0.664491  0.055811  1
  Si  Si9  1  0.504759  0.520840  0.188852  1
  Si  Si10  1  0.745241  0.020840  0.188852  1
  Si  Si11  1  0.729813  0.606483  0.101084  1
  Si  Si12  1  0.921254  0.164491  0.055811  1
  Si  Si13  1  0.020187  0.060183  0.398916  1
  Si  Si14  1  0.004759  0.645828  0.311148  1
  Si  Si15  1  0.828746  0.502175  0.444189  1
  Si  Si16  1  0.229813  0.560183  0.398916  1
  Si  Si17  1  0.245241  0.145828  0.311148  1
  Si  Si18  1  0.421254  0.002175  0.444189  1
  Si  Si19  1  0.496717  0.353722  0.356737  1
  Si  Si20  1  0.498901  0.937235  0.272669  1
  Si  Si21  1  0.551618  0.730241  0.442362  1
  Si  Si22  1  0.698382  0.230241  0.442362  1
  Si  Si23  1  0.753283  0.853722  0.356737  1
  Si  Si24  1  0.751099  0.437235  0.272669  1
