# generated using pymatgen
data_Si
_symmetry_space_group_name_H-M   'P 1'
_cell_length_a   5.46872800
_cell_length_b   10.23105326
_cell_length_c   30.69315978
_cell_angle_alpha   81.78678930
_cell_angle_beta   84.88891030
_cell_angle_gamma   74.49864043
_symmetry_Int_Tables_number   1
_chemical_formula_structural   Si
_chemical_formula_sum   Si40
_cell_volume   1635.53171395
_cell_formula_units_Z   40
loop_
 _symmetry_equiv_pos_site_id
 _symmetry_equiv_pos_as_xyz
  1  'x, y, z'
loop_
 _atom_site_type_symbol
 _atom_site_label
 _atom_site_symmetry_multiplicity
 _atom_site_fract_x
 _atom_site_fract_y
 _atom_site_fract_z
 _atom_site_occupancy
  Si  Si1  1  0.392962  0.006423  0.194800  1
  Si  Si2  1  0.201761  0.517145  0.090858  1
  Si  Si3  1  0.001399  0.756544  0.243632  1
  Si  Si4  1  0.807514  0.257644  0.141833  1
  Si  Si5  1  0.498640  0.737769  0.053185  1
  Si  Si6  1  0.798682  0.123144  0.015446  1
  Si  Si7  1  0.450600  0.446630  0.154357  1
  Si  Si8  1  0.196381  0.965200  0.055019  1
  Si  Si9  1  0.044868  0.195737  0.206626  1
  Si  Si10  1  0.832060  0.700310  0.103707  1
  Si  Si11  1  0.991024  0.881509  0.120173  1
  Si  Si12  1  0.757170  0.337365  0.037396  1
  Si  Si13  1  0.601291  0.630681  0.168859  1
  Si  Si14  1  0.439407  0.119619  0.067495  1
  Si  Si15  1  0.205258  0.380961  0.217977  1
  Si  Si16  1  0.094078  0.313967  0.080752  1
  Si  Si17  1  0.856383  0.567911  0.230974  1
  Si  Si18  1  0.647742  0.068357  0.133749  1
  Si  Si19  1  0.430042  0.553637  0.020917  1
  Si  Si20  1  0.250122  0.817077  0.181132  1
  Si  Si21  1  0.453619  0.734800  0.444981  1
  Si  Si22  1  0.199400  0.253370  0.345643  1
  Si  Si23  1  0.851318  0.576856  0.484554  1
  Si  Si24  1  0.817940  0.999690  0.396293  1
  Si  Si25  1  0.605132  0.504263  0.293374  1
  Si  Si26  1  0.648601  0.943456  0.256368  1
  Si  Si27  1  0.448239  0.182855  0.409142  1
  Si  Si28  1  0.257038  0.693577  0.305200  1
  Si  Si29  1  0.151360  0.962231  0.446815  1
  Si  Si30  1  0.842486  0.442356  0.358167  1
  Si  Si31  1  0.002258  0.631643  0.366251  1
  Si  Si32  1  0.793617  0.132089  0.269026  1
  Si  Si33  1  0.555922  0.386033  0.419248  1
  Si  Si34  1  0.399878  0.882923  0.318868  1
  Si  Si35  1  0.219958  0.146363  0.479083  1
  Si  Si36  1  0.048709  0.069319  0.331141  1
  Si  Si37  1  0.892830  0.362635  0.462604  1
  Si  Si38  1  0.658976  0.818491  0.379827  1
  Si  Si39  1  0.444742  0.319039  0.282023  1
  Si  Si40  1  0.210593  0.580381  0.432505  1
