# generated using pymatgen
data_Si
_symmetry_space_group_name_H-M   'P 1'
_cell_length_a   3.86697465
_cell_length_b   18.13771886
_cell_length_c   56.56896230
_cell_angle_alpha   98.38019175
_cell_angle_beta   90.00000000
_cell_angle_gamma   90.00000000
_symmetry_Int_Tables_number   1
_chemical_formula_structural   Si
_chemical_formula_sum   Si96
_cell_volume   3925.27611347
_cell_formula_units_Z   96
loop_
 _symmetry_equiv_pos_site_id
 _symmetry_equiv_pos_as_xyz
  1  'x, y, z'
loop_
 _atom_site_type_symbol
 _atom_site_label
 _atom_site_symmetry_multiplicity
 _atom_site_fract_x
 _atom_site_fract_y
 _atom_site_fract_z
 _atom_site_occupancy
  Si  Si1  1  0.000000  0.948768  0.715823  1
  Si  Si2  1  0.000000  0.797660  0.546982  1
  Si  Si3  1  0.000000  0.630645  0.380144  1
  Si  Si4  1  0.000000  0.671223  0.670643  1
  Si  Si5  1  0.000000  0.504488  0.504437  1
  Si  Si6  1  0.000000  0.336557  0.338054  1
  Si  Si7  1  0.000000  0.323733  0.695623  1
  Si  Si8  1  0.000000  0.150859  0.526216  1
  Si  Si9  1  0.000000  0.986091  0.362050  1
  Si  Si10  1  0.000000  0.027042  0.652258  1
  Si  Si11  1  0.000000  0.860027  0.485009  1
  Si  Si12  1  0.000000  0.695702  0.317610  1
  Si  Si13  1  0.000000  0.734506  0.608828  1
  Si  Si14  1  0.000000  0.567007  0.442143  1
  Si  Si15  1  0.000000  0.418215  0.286578  1
  Si  Si16  1  0.000000  0.573801  0.732269  1
  Si  Si17  1  0.000000  0.442274  0.567022  1
  Si  Si18  1  0.000000  0.273507  0.399805  1
  Si  Si19  1  0.000000  0.378724  0.629081  1
  Si  Si20  1  0.000000  0.213934  0.463773  1
  Si  Si21  1  0.000000  0.037211  0.294799  1
  Si  Si22  1  0.000000  0.784134  0.271653  1
  Si  Si23  1  0.000000  0.090481  0.589809  1
  Si  Si24  1  0.000000  0.922195  0.422983  1
  Si  Si25  1  0.000000  0.985527  0.610314  1
  Si  Si26  1  0.000000  0.817735  0.443456  1
  Si  Si27  1  0.000000  0.655219  0.275250  1
  Si  Si28  1  0.000000  0.850689  0.740306  1
  Si  Si29  1  0.000000  0.692640  0.567176  1
  Si  Si30  1  0.000000  0.525178  0.400323  1
  Si  Si31  1  0.000000  0.948697  0.257755  1
  Si  Si32  1  0.000000  0.337366  0.587675  1
  Si  Si33  1  0.000000  0.172558  0.422207  1
  Si  Si34  1  0.000000  0.213306  0.714219  1
  Si  Si35  1  0.000000  0.048298  0.547847  1
  Si  Si36  1  0.000000  0.879912  0.381652  1
  Si  Si37  1  0.000000  0.921110  0.672432  1
  Si  Si38  1  0.000000  0.755267  0.505353  1
  Si  Si39  1  0.000000  0.590150  0.338202  1
  Si  Si40  1  0.000000  0.629777  0.629097  1
  Si  Si41  1  0.000000  0.462346  0.462692  1
  Si  Si42  1  0.000000  0.295391  0.295642  1
  Si  Si43  1  0.000000  0.563547  0.689264  1
  Si  Si44  1  0.000000  0.400752  0.525481  1
  Si  Si45  1  0.000000  0.229632  0.357719  1
  Si  Si46  1  0.000000  0.281155  0.653044  1
  Si  Si47  1  0.000000  0.109508  0.484636  1
  Si  Si48  1  0.000000  0.946649  0.321085  1
  Si  Si49  1  0.500000  0.142109  0.704358  1
  Si  Si50  1  0.500000  0.975154  0.537308  1
  Si  Si51  1  0.500000  0.807723  0.370903  1
  Si  Si52  1  0.500000  0.847350  0.661798  1
  Si  Si53  1  0.500000  0.682233  0.494647  1
  Si  Si54  1  0.500000  0.516390  0.327568  1
  Si  Si55  1  0.500000  0.490851  0.678915  1
  Si  Si56  1  0.500000  0.327992  0.515364  1
  Si  Si57  1  0.500000  0.156345  0.346956  1
  Si  Si58  1  0.500000  0.207868  0.642281  1
  Si  Si59  1  0.500000  0.036748  0.474519  1
  Si  Si60  1  0.500000  0.873953  0.310736  1
  Si  Si61  1  0.500000  0.912322  0.599677  1
  Si  Si62  1  0.500000  0.744860  0.432824  1
  Si  Si63  1  0.500000  0.586811  0.259694  1
  Si  Si64  1  0.500000  0.782281  0.724750  1
  Si  Si65  1  0.500000  0.619765  0.556544  1
  Si  Si66  1  0.500000  0.451973  0.389686  1
  Si  Si67  1  0.500000  0.557588  0.618348  1
  Si  Si68  1  0.500000  0.389202  0.452153  1
  Si  Si69  1  0.500000  0.224194  0.285781  1
  Si  Si70  1  0.500000  0.488803  0.742245  1
  Si  Si71  1  0.500000  0.264942  0.577793  1
  Si  Si72  1  0.500000  0.100134  0.412325  1
  Si  Si73  1  0.500000  0.100943  0.661946  1
  Si  Si74  1  0.500000  0.933012  0.495563  1
  Si  Si75  1  0.500000  0.766277  0.329357  1
  Si  Si76  1  0.500000  0.806855  0.619856  1
  Si  Si77  1  0.500000  0.639840  0.453018  1
  Si  Si78  1  0.500000  0.488732  0.284177  1
  Si  Si79  1  0.500000  0.451409  0.637950  1
  Si  Si80  1  0.500000  0.286641  0.473784  1
  Si  Si81  1  0.500000  0.113767  0.304377  1
  Si  Si82  1  0.500000  0.163993  0.600195  1
  Si  Si83  1  0.500000  0.995226  0.432978  1
  Si  Si84  1  0.500000  0.863699  0.267731  1
  Si  Si85  1  0.500000  0.019285  0.713422  1
  Si  Si86  1  0.500000  0.870493  0.557857  1
  Si  Si87  1  0.500000  0.702994  0.391172  1
  Si  Si88  1  0.500000  0.741798  0.682390  1
  Si  Si89  1  0.500000  0.577473  0.514991  1
  Si  Si90  1  0.500000  0.410458  0.347742  1
  Si  Si91  1  0.500000  0.653366  0.728347  1
  Si  Si92  1  0.500000  0.515305  0.577017  1
  Si  Si93  1  0.500000  0.347019  0.410191  1
  Si  Si94  1  0.500000  0.400289  0.705201  1
  Si  Si95  1  0.500000  0.223566  0.536227  1
  Si  Si96  1  0.500000  0.058776  0.370919  1
