# generated using pymatgen
data_Si
_symmetry_space_group_name_H-M   'P 1'
_cell_length_a   5.46872800
_cell_length_b   6.69779657
_cell_length_c   24.45689512
_cell_angle_alpha   90.00000000
_cell_angle_beta   90.00000000
_cell_angle_gamma   114.09484255
_symmetry_Int_Tables_number   1
_chemical_formula_structural   Si
_chemical_formula_sum   Si20
_cell_volume   817.76585697
_cell_formula_units_Z   20
loop_
 _symmetry_equiv_pos_site_id
 _symmetry_equiv_pos_as_xyz
  1  'x, y, z'
loop_
 _atom_site_type_symbol
 _atom_site_label
 _atom_site_symmetry_multiplicity
 _atom_site_fract_x
 _atom_site_fract_y
 _atom_site_fract_z
 _atom_site_occupancy
  Si  Si1  1  0.585131  0.195782  0.403105  1
  Si  Si2  1  0.198527  0.400084  0.301779  1
  Si  Si3  1  0.801854  0.599817  0.200079  1
  Si  Si4  1  0.404368  0.793294  0.097424  1
  Si  Si5  1  0.137520  0.091632  0.004885  1
  Si  Si6  1  0.201473  0.899916  0.173221  1
  Si  Si7  1  0.814869  0.104218  0.071895  1
  Si  Si8  1  0.262480  0.208368  0.470115  1
  Si  Si9  1  0.995632  0.506706  0.377576  1
  Si  Si10  1  0.598146  0.700183  0.274921  1
  Si  Si11  1  0.903842  0.806179  0.348740  1
  Si  Si12  1  0.499865  0.999681  0.248839  1
  Si  Si13  1  0.092245  0.197930  0.150966  1
  Si  Si14  1  0.639395  0.367028  0.047601  1
  Si  Si15  1  0.371784  0.562160  0.434751  1
  Si  Si16  1  0.900135  0.300319  0.226161  1
  Si  Si17  1  0.496158  0.493821  0.126260  1
  Si  Si18  1  0.028216  0.737840  0.040249  1
  Si  Si19  1  0.760605  0.932972  0.427399  1
  Si  Si20  1  0.307755  0.102070  0.324034  1
