# generated using pymatgen
data_Si
_symmetry_space_group_name_H-M   'P 1'
_cell_length_a   3.86697465
_cell_length_b   5.46872800
_cell_length_c   30.93579723
_cell_angle_alpha   90.00000000
_cell_angle_beta   90.00000000
_cell_angle_gamma   90.00000000
_symmetry_Int_Tables_number   1
_chemical_formula_structural   Si
_chemical_formula_sum   Si16
_cell_volume   654.21268558
_cell_formula_units_Z   16
loop_
 _symmetry_equiv_pos_site_id
 _symmetry_equiv_pos_as_xyz
  1  'x, y, z'
loop_
 _atom_site_type_symbol
 _atom_site_label
 _atom_site_symmetry_multiplicity
 _atom_site_fract_x
 _atom_site_fract_y
 _atom_site_fract_z
 _atom_site_occupancy
  Si  Si1  1  0.000000  0.008304  0.908164  1
  Si  Si2  1  0.000000  0.001030  0.781484  1
  Si  Si3  1  0.000000  0.249320  0.844264  1
  Si  Si4  1  0.000000  0.223562  0.975418  1
  Si  Si5  1  0.500000  0.423668  0.951027  1
  Si  Si6  1  0.500000  0.499839  0.843623  1
  Si  Si7  1  0.500000  0.751627  0.780967  1
  Si  Si8  1  0.500000  0.760457  0.905486  1
  Si  Si9  1  0.000000  0.000680  0.655736  1
  Si  Si10  1  0.000000  0.026438  0.524582  1
  Si  Si11  1  0.000000  0.241696  0.591836  1
  Si  Si12  1  0.000000  0.248970  0.718516  1
  Si  Si13  1  0.500000  0.498373  0.719033  1
  Si  Si14  1  0.500000  0.489543  0.594514  1
  Si  Si15  1  0.500000  0.826332  0.548973  1
  Si  Si16  1  0.500000  0.750161  0.656377  1
