# generated using pymatgen
data_Si
_symmetry_space_group_name_H-M   'P 1'
_cell_length_a   3.86697465
_cell_length_b   15.94394495
_cell_length_c   24.76071913
_cell_angle_alpha   105.37550393
_cell_angle_beta   90.00000000
_cell_angle_gamma   90.00000000
_symmetry_Int_Tables_number   1
_chemical_formula_structural   Si
_chemical_formula_sum   Si36
_cell_volume   1471.97854255
_cell_formula_units_Z   36
loop_
 _symmetry_equiv_pos_site_id
 _symmetry_equiv_pos_as_xyz
  1  'x, y, z'
loop_
 _atom_site_type_symbol
 _atom_site_label
 _atom_site_symmetry_multiplicity
 _atom_site_fract_x
 _atom_site_fract_y
 _atom_site_fract_z
 _atom_site_occupancy
  Si  Si1  1  0.500000  0.931019  0.285776  1
  Si  Si2  1  0.500000  0.101769  0.401486  1
  Si  Si3  1  0.500000  0.506914  0.329980  1
  Si  Si4  1  1.000000  0.126957  0.351554  1
  Si  Si5  1  1.000000  0.552049  0.286758  1
  Si  Si6  1  1.000000  0.762035  0.415371  1
  Si  Si7  1  1.000000  0.714433  0.316462  1
  Si  Si8  1  1.000000  0.005160  0.266922  1
  Si  Si9  1  0.000000  0.286307  0.357730  1
  Si  Si10  1  0.500000  0.946528  0.388620  1
  Si  Si11  1  0.500000  0.359683  0.339061  1
  Si  Si12  1  0.500000  0.794597  0.302814  1
  Si  Si13  1  0.500000  0.713549  0.451725  1
  Si  Si14  1  0.500000  0.941583  0.569713  1
  Si  Si15  1  0.500000  0.324610  0.501877  1
  Si  Si16  1  1.000000  0.987184  0.530757  1
  Si  Si17  1  0.000000  0.360615  0.456836  1
  Si  Si18  1  0.000000  0.585422  0.565885  1
  Si  Si19  1  1.000000  0.512812  0.469243  1
  Si  Si20  1  1.000000  0.914573  0.434113  1
  Si  Si21  1  1.000000  0.139387  0.543178  1
  Si  Si22  1  0.500000  0.786434  0.548264  1
  Si  Si23  1  0.500000  0.175389  0.498131  1
  Si  Si24  1  0.500000  0.558395  0.430275  1
  Si  Si25  1  0.500000  0.553478  0.611383  1
  Si  Si26  1  0.500000  0.705397  0.697186  1
  Si  Si27  1  0.500000  0.140358  0.660965  1
  Si  Si28  1  0.000000  0.785554  0.683533  1
  Si  Si29  1  0.000000  0.213709  0.642283  1
  Si  Si30  1  0.000000  0.494845  0.733086  1
  Si  Si31  1  0.000000  0.373055  0.648452  1
  Si  Si32  1  0.000000  0.737961  0.584626  1
  Si  Si33  1  1.000000  0.947928  0.713202  1
  Si  Si34  1  0.500000  0.568980  0.714230  1
  Si  Si35  1  0.500000  0.993093  0.670001  1
  Si  Si36  1  0.500000  0.398240  0.598521  1
