# generated using pymatgen
data_Si
_symmetry_space_group_name_H-M   'P 1'
_cell_length_a   6.69779657
_cell_length_b   8.64681819
_cell_length_c   26.51064257
_cell_angle_alpha   93.74022039
_cell_angle_beta   94.83089688
_cell_angle_gamma   104.96321743
_symmetry_Int_Tables_number   1
_chemical_formula_structural   Si
_chemical_formula_sum   Si36
_cell_volume   1471.97854255
_cell_formula_units_Z   36
loop_
 _symmetry_equiv_pos_site_id
 _symmetry_equiv_pos_as_xyz
  1  'x, y, z'
loop_
 _atom_site_type_symbol
 _atom_site_label
 _atom_site_symmetry_multiplicity
 _atom_site_fract_x
 _atom_site_fract_y
 _atom_site_fract_z
 _atom_site_occupancy
  Si  Si1  1  0.701520  0.223273  0.267333  1
  Si  Si2  1  0.990902  0.654985  0.319065  1
  Si  Si3  1  0.128134  0.073207  0.370888  1
  Si  Si4  1  0.217691  0.906322  0.305495  1
  Si  Si5  1  0.378278  0.327265  0.377695  1
  Si  Si6  1  0.036544  0.402850  0.288118  1
  Si  Si7  1  0.412968  0.386606  0.291460  1
  Si  Si8  1  0.531787  0.867745  0.346009  1
  Si  Si9  1  0.712575  0.302473  0.404678  1
  Si  Si10  1  0.958769  0.553720  0.402977  1
  Si  Si11  1  0.634219  0.644234  0.312956  1
  Si  Si12  1  0.793671  0.114951  0.345700  1
  Si  Si13  1  0.294244  0.527178  0.431092  1
  Si  Si14  1  0.456803  0.972752  0.485304  1
  Si  Si15  1  0.626443  0.416810  0.544110  1
  Si  Si16  1  0.708567  0.223315  0.487764  1
  Si  Si17  1  0.875193  0.666965  0.541797  1
  Si  Si18  1  0.542401  0.777089  0.429796  1
  Si  Si19  1  0.874807  0.749702  0.458203  1
  Si  Si20  1  0.041433  0.193352  0.512236  1
  Si  Si21  1  0.207599  0.639578  0.570204  1
  Si  Si22  1  0.455756  0.889489  0.568908  1
  Si  Si23  1  0.123557  0.999857  0.455890  1
  Si  Si24  1  0.293197  0.443915  0.514696  1
  Si  Si25  1  0.791231  0.862947  0.597023  1
  Si  Si26  1  0.956329  0.301716  0.654300  1
  Si  Si27  1  0.115781  0.772433  0.687044  1
  Si  Si28  1  0.218213  0.548922  0.653991  1
  Si  Si29  1  0.337032  0.030061  0.708540  1
  Si  Si30  1  0.037425  0.114194  0.595322  1
  Si  Si31  1  0.371722  0.089401  0.622305  1
  Si  Si32  1  0.532309  0.510345  0.694505  1
  Si  Si33  1  0.713456  0.013817  0.711882  1
  Si  Si34  1  0.048480  0.193394  0.732667  1
  Si  Si35  1  0.621866  0.343459  0.629112  1
  Si  Si36  1  0.759098  0.761682  0.680935  1
